** Profile: "SCHEMATIC1-gia_acsweep"  [ D:\Stavros\StavrosDIAFORA\Πανεπιστήμιο\7 ΕΞΑΜΗΝΟ\Ηλεκτρονική ΙΙΙ\hl3_tel_enisx9671\kyklwma_kanoniko\hl3_telestikos_9671-pspicefiles\schematic1\gia_acsweep.sim ] 

** Creating circuit file "gia_acsweep.cir" 
** WARNING: THIS AUTOMATICALLY GENERATED FILE MAY BE OVERWRITTEN BY SUBSEQUENT SIMULATIONS

*Libraries: 
* Profile Libraries :
* Local Libraries :
.LIB "../../../hl3_telestikos_9671-pspicefiles/hl3_telestikos_9671.lib" 
* From [PSPICE NETLIST] section of C:\Users\Stavros\AppData\Roaming\SPB_Data\cdssetup\OrCAD_PSpice\17.2.0\PSpice.ini file:
.lib "nomd.lib" 

*Analysis directives: 
.AC DEC 500 100 100Meg
.OPTIONS ADVCONV
.PROBE64 V(alias(*)) I(alias(*)) W(alias(*)) D(alias(*)) NOISE(alias(*)) 
.INC "..\SCHEMATIC1.net" 


.END
